<configuration>
    <input>
       <net-file value="3x3grid.net.xml"/>
        <route-files value="3x3grid.rou.xml"/>
    </input>
	<time>
        <begin value="0"/>
        <end value="100000"/>
    </time>
</configuration>
